# primitive CIF file created by Jmol 14.20.4  2017-07-27 08:15
data_primitive
_cell_length_a 7.211916
_cell_length_b 7.5552816
_cell_length_c 51.1389
_cell_angle_alpha 90.03111
_cell_angle_beta 90.23428
_cell_angle_gamma 97.477005

_symmetry_space_group_name_H-M 'P 1'
loop_
_space_group_symop_operation_xyz
'x,y,z'

loop_
_atom_site_label
_atom_site_fract_x
_atom_site_fract_y
_atom_site_fract_z
C	0.53977   	0.12820   	0.69898   
C	0.51332   	0.31972   	0.70624   
H	0.45002   	0.03427   	0.71151   
H	0.68496   	0.10575   	0.70338   
C	0.55931   	0.36632   	0.73476   
H	0.36754   	0.34013   	0.70200   
H	0.60102   	0.41306   	0.69338   
H	0.47018   	0.27820   	0.74804   
H	0.70533   	0.35167   	0.73949   
H	0.53848   	0.50434   	0.73934   
C	1.04174   	0.63168   	0.69858   
C	1.01518   	0.82302   	0.70590   
H	1.18693   	0.60908   	0.70293   
H	0.95195   	0.53755   	0.71109   
C	1.06080   	0.86857   	0.73446   
H	0.86943   	0.84332   	0.70164   
H	1.10292   	0.91669   	0.69309   
H	1.20721   	0.85533   	0.73911   
H	0.97282   	0.77856   	0.74762   
C	1.03929   	0.12766   	0.80307   
C	1.01288   	0.31910   	0.79576   
H	1.18443   	0.10517   	0.79884   
H	0.94949   	0.03359   	0.79044   
C	1.05942   	0.36518   	0.76729   
H	1.10032   	0.41258   	0.80874   
H	0.86705   	0.33956   	0.79977   
H	0.97092   	0.27632   	0.75392   
H	1.20566   	0.35079   	0.76284   
H	1.03822   	0.50299   	0.76260   
C	0.54230   	0.63261   	0.80098   
C	0.51550   	0.82387   	0.79366   
H	0.45229   	0.53847   	0.78840   
H	0.68741   	0.61010   	0.79672   
C	0.56192   	0.86967   	0.76520   
H	0.36953   	0.84392   	0.79769   
H	0.60279   	0.91763   	0.80663   
H	0.53985   	1.00709   	0.76045   
H	0.47405   	0.78014   	0.75184   
H	0.70833   	0.85607   	0.76078   
H	1.03815   	1.00584   	0.73922   
